<?xml version="1.0" encoding="UTF-8" standalone="yes"?><template><description></description><name>Lab 2: Adding to the Flow</name><snippet><processGroups><id>f3aded9a-3f8d-405f-a7ce-d070a298e906</id><parentGroupId>bf55f4d4-dd4c-40ec-9a02-f08ec03fdaed</parentGroupId><position><x>527.6044921875</x><y>64.86817169189453</y></position><activeRemotePortCount>0</activeRemotePortCount><comments></comments><contents><connections><id>4f7f61dd-e85c-4efc-833e-907d0e67dd5d</id><parentGroupId>f3aded9a-3f8d-405f-a7ce-d070a298e906</parentGroupId><backPressureDataSizeThreshold>0 MB</backPressureDataSizeThreshold><backPressureObjectThreshold>0</backPressureObjectThreshold><destination><groupId>f3aded9a-3f8d-405f-a7ce-d070a298e906</groupId><id>141459d5-2ee0-410f-80db-3223f1a181e7</id><type>PROCESSOR</type></destination><flowFileExpiration>0 sec</flowFileExpiration><labelIndex>1</labelIndex><name></name><selectedRelationships>success</selectedRelationships><source><groupId>f3aded9a-3f8d-405f-a7ce-d070a298e906</groupId><id>d1af0114-c09d-4e3b-a653-b940414398e1</id><type>PROCESSOR</type></source><zIndex>0</zIndex></connections><connections><id>ed22ee5a-05e7-4578-b42e-6ecd7ba859e5</id><parentGroupId>f3aded9a-3f8d-405f-a7ce-d070a298e906</parentGroupId><backPressureDataSizeThreshold>0 MB</backPressureDataSizeThreshold><backPressureObjectThreshold>0</backPressureObjectThreshold><destination><groupId>f3aded9a-3f8d-405f-a7ce-d070a298e906</groupId><id>5d459d9c-73ff-40b3-94bd-ca71ee9c1f32</id><type>PROCESSOR</type></destination><flowFileExpiration>0 sec</flowFileExpiration><labelIndex>1</labelIndex><name></name><selectedRelationships>success</selectedRelationships><source><groupId>f3aded9a-3f8d-405f-a7ce-d070a298e906</groupId><id>b2656a9f-dc06-48b6-bf53-b6cbb6c8ce53</id><type>PROCESSOR</type></source><zIndex>0</zIndex></connections><connections><id>415e0fc4-9099-4e20-b859-253b4d0116c9</id><parentGroupId>f3aded9a-3f8d-405f-a7ce-d070a298e906</parentGroupId><backPressureDataSizeThreshold>0 MB</backPressureDataSizeThreshold><backPressureObjectThreshold>0</backPressureObjectThreshold><destination><groupId>f3aded9a-3f8d-405f-a7ce-d070a298e906</groupId><id>b2656a9f-dc06-48b6-bf53-b6cbb6c8ce53</id><type>PROCESSOR</type></destination><flowFileExpiration>0 sec</flowFileExpiration><labelIndex>1</labelIndex><name></name><selectedRelationships>success</selectedRelationships><source><groupId>f3aded9a-3f8d-405f-a7ce-d070a298e906</groupId><id>141459d5-2ee0-410f-80db-3223f1a181e7</id><type>PROCESSOR</type></source><zIndex>0</zIndex></connections><connections><id>f5e28296-debe-4760-a06c-811bd07f5b55</id><parentGroupId>f3aded9a-3f8d-405f-a7ce-d070a298e906</parentGroupId><backPressureDataSizeThreshold>0 MB</backPressureDataSizeThreshold><backPressureObjectThreshold>0</backPressureObjectThreshold><destination><groupId>f3aded9a-3f8d-405f-a7ce-d070a298e906</groupId><id>141459d5-2ee0-410f-80db-3223f1a181e7</id><type>PROCESSOR</type></destination><flowFileExpiration>0 sec</flowFileExpiration><labelIndex>1</labelIndex><name></name><selectedRelationships>success</selectedRelationships><source><groupId>f3aded9a-3f8d-405f-a7ce-d070a298e906</groupId><id>dbcd602a-7684-4af9-b11b-67562595eedd</id><type>PROCESSOR</type></source><zIndex>0</zIndex></connections><labels><id>717930e6-4739-43b7-b153-0b798b81b63b</id><parentGroupId>f3aded9a-3f8d-405f-a7ce-d070a298e906</parentGroupId><position><x>846.000000183863</x><y>196.99999991644958</y></position><height>45.0</height><label>Adding Some Extra Sources</label><style><entry><key>background-color</key><value>#139c2a</value></entry><entry><key>font-size</key><value>12px</value></entry></style><width>234.0</width></labels><labels><id>f077f200-739b-4968-bdbf-c82b5f6bac15</id><parentGroupId>f3aded9a-3f8d-405f-a7ce-d070a298e906</parentGroupId><position><x>845.5833131721442</x><y>99.08023825873477</y></position><height>79.0851821899414</height><label>Picks up files from an input Directory,
Adds Meta data to them (mime.type expected for compression)
Compresses file content based on mime.type
Writes file to a local directory.</label><style><entry><key>font-size</key><value>12px</value></entry></style><width>405.65704345703125</width></labels><processors><id>141459d5-2ee0-410f-80db-3223f1a181e7</id><parentGroupId>f3aded9a-3f8d-405f-a7ce-d070a298e906</parentGroupId><position><x>150.000000183863</x><y>263.9999999164496</y></position><config><bulletinLevel>WARN</bulletinLevel><comments></comments><concurrentlySchedulableTaskCount>1</concurrentlySchedulableTaskCount><defaultConcurrentTasks><entry><key>TIMER_DRIVEN</key><value>1</value></entry><entry><key>EVENT_DRIVEN</key><value>0</value></entry><entry><key>CRON_DRIVEN</key><value>1</value></entry></defaultConcurrentTasks><defaultSchedulingPeriod><entry><key>TIMER_DRIVEN</key><value>0 sec</value></entry><entry><key>CRON_DRIVEN</key><value>* * * * * ?</value></entry></defaultSchedulingPeriod><descriptors><entry><key>Delete Attributes Expression</key><value><description>Regular expression for attributes to be deleted from flowfiles.</description><displayName>Delete Attributes Expression</displayName><dynamic>false</dynamic><name>Delete Attributes Expression</name><required>false</required><sensitive>false</sensitive><supportsEl>true</supportsEl></value></entry><entry><key>mime.type</key><value><description></description><displayName>mime.type</displayName><dynamic>true</dynamic><name>mime.type</name><required>false</required><sensitive>false</sensitive><supportsEl>true</supportsEl></value></entry></descriptors><lossTolerant>false</lossTolerant><penaltyDuration>30 sec</penaltyDuration><properties><entry><key>Delete Attributes Expression</key></entry><entry><key>mime.type</key><value>application/gzip</value></entry></properties><runDurationMillis>0</runDurationMillis><schedulingPeriod>0 sec</schedulingPeriod><schedulingStrategy>TIMER_DRIVEN</schedulingStrategy><yieldDuration>1 sec</yieldDuration></config><name>UpdateAttribute</name><relationships><autoTerminate>false</autoTerminate><description>All FlowFiles are routed to this relationship</description><name>success</name></relationships><state>STOPPED</state><style/><supportsEventDriven>true</supportsEventDriven><supportsParallelProcessing>true</supportsParallelProcessing><type>org.apache.nifi.processors.attributes.UpdateAttribute</type></processors><processors><id>d1af0114-c09d-4e3b-a653-b940414398e1</id><parentGroupId>f3aded9a-3f8d-405f-a7ce-d070a298e906</parentGroupId><position><x>379.000000183863</x><y>97.99999991644958</y></position><config><bulletinLevel>WARN</bulletinLevel><comments></comments><concurrentlySchedulableTaskCount>1</concurrentlySchedulableTaskCount><defaultConcurrentTasks><entry><key>TIMER_DRIVEN</key><value>1</value></entry><entry><key>EVENT_DRIVEN</key><value>0</value></entry><entry><key>CRON_DRIVEN</key><value>1</value></entry></defaultConcurrentTasks><defaultSchedulingPeriod><entry><key>TIMER_DRIVEN</key><value>0 sec</value></entry><entry><key>CRON_DRIVEN</key><value>* * * * * ?</value></entry></defaultSchedulingPeriod><descriptors><entry><key>URL</key><value><description>The URL to pull from</description><displayName>URL</displayName><dynamic>false</dynamic><name>URL</name><required>true</required><sensitive>false</sensitive><supportsEl>true</supportsEl></value></entry><entry><key>Filename</key><value><description>The filename to assign to the file when pulled</description><displayName>Filename</displayName><dynamic>false</dynamic><name>Filename</name><required>true</required><sensitive>false</sensitive><supportsEl>true</supportsEl></value></entry><entry><key>SSL Context Service</key><value><description>The Controller Service to use in order to obtain an SSL Context</description><displayName>SSL Context Service</displayName><dynamic>false</dynamic><identifiesControllerService>org.apache.nifi.ssl.SSLContextService</identifiesControllerService><name>SSL Context Service</name><required>false</required><sensitive>false</sensitive><supportsEl>false</supportsEl></value></entry><entry><key>Username</key><value><description>Username required to access the URL</description><displayName>Username</displayName><dynamic>false</dynamic><name>Username</name><required>false</required><sensitive>false</sensitive><supportsEl>false</supportsEl></value></entry><entry><key>Password</key><value><description>Password required to access the URL</description><displayName>Password</displayName><dynamic>false</dynamic><name>Password</name><required>false</required><sensitive>true</sensitive><supportsEl>false</supportsEl></value></entry><entry><key>Connection Timeout</key><value><defaultValue>30 sec</defaultValue><description>How long to wait when attempting to connect to the remote server before giving up</description><displayName>Connection Timeout</displayName><dynamic>false</dynamic><name>Connection Timeout</name><required>true</required><sensitive>false</sensitive><supportsEl>false</supportsEl></value></entry><entry><key>Data Timeout</key><value><defaultValue>30 sec</defaultValue><description>How long to wait between receiving segments of data from the remote server before giving up and discarding the partial file</description><displayName>Data Timeout</displayName><dynamic>false</dynamic><name>Data Timeout</name><required>true</required><sensitive>false</sensitive><supportsEl>false</supportsEl></value></entry><entry><key>User Agent</key><value><description>What to report as the User Agent when we connect to the remote server</description><displayName>User Agent</displayName><dynamic>false</dynamic><name>User Agent</name><required>false</required><sensitive>false</sensitive><supportsEl>false</supportsEl></value></entry><entry><key>Accept Content-Type</key><value><description>If specified, requests will only accept the provided Content-Type</description><displayName>Accept Content-Type</displayName><dynamic>false</dynamic><name>Accept Content-Type</name><required>false</required><sensitive>false</sensitive><supportsEl>false</supportsEl></value></entry><entry><key>Follow Redirects</key><value><allowableValues><displayName>true</displayName><value>true</value></allowableValues><allowableValues><displayName>false</displayName><value>false</value></allowableValues><defaultValue>false</defaultValue><description>If we receive a 3xx HTTP Status Code from the server, indicates whether or not we should follow the redirect that the server specifies</description><displayName>Follow Redirects</displayName><dynamic>false</dynamic><name>Follow Redirects</name><required>false</required><sensitive>false</sensitive><supportsEl>false</supportsEl></value></entry><entry><key>Proxy Host</key><value><description>The fully qualified hostname or IP address of the proxy server</description><displayName>Proxy Host</displayName><dynamic>false</dynamic><name>Proxy Host</name><required>false</required><sensitive>false</sensitive><supportsEl>false</supportsEl></value></entry><entry><key>Proxy Port</key><value><description>The port of the proxy server</description><displayName>Proxy Port</displayName><dynamic>false</dynamic><name>Proxy Port</name><required>false</required><sensitive>false</sensitive><supportsEl>false</supportsEl></value></entry></descriptors><lossTolerant>false</lossTolerant><penaltyDuration>30 sec</penaltyDuration><properties><entry><key>URL</key><value>http://news.bbc.co.uk/</value></entry><entry><key>Filename</key><value>news.html</value></entry><entry><key>SSL Context Service</key></entry><entry><key>Username</key></entry><entry><key>Password</key></entry><entry><key>Connection Timeout</key></entry><entry><key>Data Timeout</key></entry><entry><key>User Agent</key></entry><entry><key>Accept Content-Type</key></entry><entry><key>Follow Redirects</key></entry><entry><key>Proxy Host</key></entry><entry><key>Proxy Port</key></entry></properties><runDurationMillis>0</runDurationMillis><schedulingPeriod>0 sec</schedulingPeriod><schedulingStrategy>TIMER_DRIVEN</schedulingStrategy><yieldDuration>1 sec</yieldDuration></config><name>GetHTTP</name><relationships><autoTerminate>false</autoTerminate><description>All files are transferred to the success relationship</description><name>success</name></relationships><state>STOPPED</state><style/><supportsEventDriven>false</supportsEventDriven><supportsParallelProcessing>true</supportsParallelProcessing><type>org.apache.nifi.processors.standard.GetHTTP</type></processors><processors><id>dbcd602a-7684-4af9-b11b-67562595eedd</id><parentGroupId>f3aded9a-3f8d-405f-a7ce-d070a298e906</parentGroupId><position><x>-84.999999816137</x><y>91.99999991644958</y></position><config><bulletinLevel>WARN</bulletinLevel><comments></comments><concurrentlySchedulableTaskCount>1</concurrentlySchedulableTaskCount><defaultConcurrentTasks><entry><key>TIMER_DRIVEN</key><value>1</value></entry><entry><key>EVENT_DRIVEN</key><value>0</value></entry><entry><key>CRON_DRIVEN</key><value>1</value></entry></defaultConcurrentTasks><defaultSchedulingPeriod><entry><key>TIMER_DRIVEN</key><value>0 sec</value></entry><entry><key>CRON_DRIVEN</key><value>* * * * * ?</value></entry></defaultSchedulingPeriod><descriptors><entry><key>Input Directory</key><value><description>The input directory from which to pull files</description><displayName>Input Directory</displayName><dynamic>false</dynamic><name>Input Directory</name><required>true</required><sensitive>false</sensitive><supportsEl>true</supportsEl></value></entry><entry><key>File Filter</key><value><defaultValue>[^\.].*</defaultValue><description>Only files whose names match the given regular expression will be picked up</description><displayName>File Filter</displayName><dynamic>false</dynamic><name>File Filter</name><required>true</required><sensitive>false</sensitive><supportsEl>false</supportsEl></value></entry><entry><key>Path Filter</key><value><description>When Recurse Subdirectories is true, then only subdirectories whose path matches the given regular expression will be scanned</description><displayName>Path Filter</displayName><dynamic>false</dynamic><name>Path Filter</name><required>false</required><sensitive>false</sensitive><supportsEl>false</supportsEl></value></entry><entry><key>Batch Size</key><value><defaultValue>10</defaultValue><description>The maximum number of files to pull in each iteration</description><displayName>Batch Size</displayName><dynamic>false</dynamic><name>Batch Size</name><required>true</required><sensitive>false</sensitive><supportsEl>false</supportsEl></value></entry><entry><key>Keep Source File</key><value><allowableValues><displayName>true</displayName><value>true</value></allowableValues><allowableValues><displayName>false</displayName><value>false</value></allowableValues><defaultValue>false</defaultValue><description>If true, the file is not deleted after it has been copied to the Content Repository; this causes the file to be picked up continually and is useful for testing purposes.  If not keeping original NiFi will need write permissions on the directory it is pulling from otherwise it will ignore the file.</description><displayName>Keep Source File</displayName><dynamic>false</dynamic><name>Keep Source File</name><required>true</required><sensitive>false</sensitive><supportsEl>false</supportsEl></value></entry><entry><key>Recurse Subdirectories</key><value><allowableValues><displayName>true</displayName><value>true</value></allowableValues><allowableValues><displayName>false</displayName><value>false</value></allowableValues><defaultValue>true</defaultValue><description>Indicates whether or not to pull files from subdirectories</description><displayName>Recurse Subdirectories</displayName><dynamic>false</dynamic><name>Recurse Subdirectories</name><required>true</required><sensitive>false</sensitive><supportsEl>false</supportsEl></value></entry><entry><key>Polling Interval</key><value><defaultValue>0 sec</defaultValue><description>Indicates how long to wait before performing a directory listing</description><displayName>Polling Interval</displayName><dynamic>false</dynamic><name>Polling Interval</name><required>true</required><sensitive>false</sensitive><supportsEl>false</supportsEl></value></entry><entry><key>Ignore Hidden Files</key><value><allowableValues><displayName>true</displayName><value>true</value></allowableValues><allowableValues><displayName>false</displayName><value>false</value></allowableValues><defaultValue>true</defaultValue><description>Indicates whether or not hidden files should be ignored</description><displayName>Ignore Hidden Files</displayName><dynamic>false</dynamic><name>Ignore Hidden Files</name><required>true</required><sensitive>false</sensitive><supportsEl>false</supportsEl></value></entry><entry><key>Minimum File Age</key><value><defaultValue>0 sec</defaultValue><description>The minimum age that a file must be in order to be pulled; any file younger than this amount of time (according to last modification date) will be ignored</description><displayName>Minimum File Age</displayName><dynamic>false</dynamic><name>Minimum File Age</name><required>true</required><sensitive>false</sensitive><supportsEl>false</supportsEl></value></entry><entry><key>Maximum File Age</key><value><description>The maximum age that a file must be in order to be pulled; any file older than this amount of time (according to last modification date) will be ignored</description><displayName>Maximum File Age</displayName><dynamic>false</dynamic><name>Maximum File Age</name><required>false</required><sensitive>false</sensitive><supportsEl>false</supportsEl></value></entry><entry><key>Minimum File Size</key><value><defaultValue>0 B</defaultValue><description>The minimum size that a file must be in order to be pulled</description><displayName>Minimum File Size</displayName><dynamic>false</dynamic><name>Minimum File Size</name><required>true</required><sensitive>false</sensitive><supportsEl>false</supportsEl></value></entry><entry><key>Maximum File Size</key><value><description>The maximum size that a file can be in order to be pulled</description><displayName>Maximum File Size</displayName><dynamic>false</dynamic><name>Maximum File Size</name><required>false</required><sensitive>false</sensitive><supportsEl>false</supportsEl></value></entry></descriptors><lossTolerant>false</lossTolerant><penaltyDuration>30 sec</penaltyDuration><properties><entry><key>Input Directory</key><value>demo/to_compress/</value></entry><entry><key>File Filter</key></entry><entry><key>Path Filter</key></entry><entry><key>Batch Size</key></entry><entry><key>Keep Source File</key></entry><entry><key>Recurse Subdirectories</key></entry><entry><key>Polling Interval</key><value>30 sec</value></entry><entry><key>Ignore Hidden Files</key></entry><entry><key>Minimum File Age</key></entry><entry><key>Maximum File Age</key></entry><entry><key>Minimum File Size</key></entry><entry><key>Maximum File Size</key></entry></properties><runDurationMillis>0</runDurationMillis><schedulingPeriod>0 sec</schedulingPeriod><schedulingStrategy>TIMER_DRIVEN</schedulingStrategy><yieldDuration>1 sec</yieldDuration></config><name>GetFile</name><relationships><autoTerminate>false</autoTerminate><description>All files are routed to success</description><name>success</name></relationships><state>STOPPED</state><style/><supportsEventDriven>false</supportsEventDriven><supportsParallelProcessing>true</supportsParallelProcessing><type>org.apache.nifi.processors.standard.GetFile</type></processors><processors><id>b2656a9f-dc06-48b6-bf53-b6cbb6c8ce53</id><parentGroupId>f3aded9a-3f8d-405f-a7ce-d070a298e906</parentGroupId><position><x>150.000000183863</x><y>438.9999999164496</y></position><config><bulletinLevel>WARN</bulletinLevel><comments></comments><concurrentlySchedulableTaskCount>1</concurrentlySchedulableTaskCount><defaultConcurrentTasks><entry><key>TIMER_DRIVEN</key><value>1</value></entry><entry><key>EVENT_DRIVEN</key><value>0</value></entry><entry><key>CRON_DRIVEN</key><value>1</value></entry></defaultConcurrentTasks><defaultSchedulingPeriod><entry><key>TIMER_DRIVEN</key><value>0 sec</value></entry><entry><key>CRON_DRIVEN</key><value>* * * * * ?</value></entry></defaultSchedulingPeriod><descriptors><entry><key>Mode</key><value><allowableValues><displayName>compress</displayName><value>compress</value></allowableValues><allowableValues><displayName>decompress</displayName><value>decompress</value></allowableValues><defaultValue>compress</defaultValue><description>Indicates whether the processor should compress content or decompress content. Must be either 'compress' or 'decompress'</description><displayName>Mode</displayName><dynamic>false</dynamic><name>Mode</name><required>true</required><sensitive>false</sensitive><supportsEl>false</supportsEl></value></entry><entry><key>Compression Format</key><value><allowableValues><displayName>use mime.type attribute</displayName><value>use mime.type attribute</value></allowableValues><allowableValues><displayName>gzip</displayName><value>gzip</value></allowableValues><allowableValues><displayName>bzip2</displayName><value>bzip2</value></allowableValues><allowableValues><displayName>xz-lzma2</displayName><value>xz-lzma2</value></allowableValues><allowableValues><displayName>lzma</displayName><value>lzma</value></allowableValues><defaultValue>use mime.type attribute</defaultValue><description>The compression format to use. Valid values are: GZIP, BZIP2, XZ-LZMA2, and LZMA</description><displayName>Compression Format</displayName><dynamic>false</dynamic><name>Compression Format</name><required>true</required><sensitive>false</sensitive><supportsEl>false</supportsEl></value></entry><entry><key>Compression Level</key><value><allowableValues><displayName>0</displayName><value>0</value></allowableValues><allowableValues><displayName>1</displayName><value>1</value></allowableValues><allowableValues><displayName>2</displayName><value>2</value></allowableValues><allowableValues><displayName>3</displayName><value>3</value></allowableValues><allowableValues><displayName>4</displayName><value>4</value></allowableValues><allowableValues><displayName>5</displayName><value>5</value></allowableValues><allowableValues><displayName>6</displayName><value>6</value></allowableValues><allowableValues><displayName>7</displayName><value>7</value></allowableValues><allowableValues><displayName>8</displayName><value>8</value></allowableValues><allowableValues><displayName>9</displayName><value>9</value></allowableValues><defaultValue>1</defaultValue><description>The compression level to use; this is valid only when using GZIP compression. A lower value results in faster processing but less compression; a value of 0 indicates no compression but simply archiving</description><displayName>Compression Level</displayName><dynamic>false</dynamic><name>Compression Level</name><required>true</required><sensitive>false</sensitive><supportsEl>false</supportsEl></value></entry><entry><key>Update Filename</key><value><allowableValues><displayName>true</displayName><value>true</value></allowableValues><allowableValues><displayName>false</displayName><value>false</value></allowableValues><defaultValue>false</defaultValue><description>If true, will remove the filename extension when decompressing data (only if the extension indicates the appropriate compression format) and add the appropriate extension when compressing data</description><displayName>Update Filename</displayName><dynamic>false</dynamic><name>Update Filename</name><required>true</required><sensitive>false</sensitive><supportsEl>false</supportsEl></value></entry></descriptors><lossTolerant>false</lossTolerant><penaltyDuration>30 sec</penaltyDuration><properties><entry><key>Mode</key></entry><entry><key>Compression Format</key></entry><entry><key>Compression Level</key></entry><entry><key>Update Filename</key><value>true</value></entry></properties><runDurationMillis>2000</runDurationMillis><schedulingPeriod>0 sec</schedulingPeriod><schedulingStrategy>TIMER_DRIVEN</schedulingStrategy><yieldDuration>1 sec</yieldDuration></config><name>CompressContent</name><relationships><autoTerminate>true</autoTerminate><description>FlowFiles will be transferred to the failure relationship if they fail to compress/decompress</description><name>failure</name></relationships><relationships><autoTerminate>false</autoTerminate><description>FlowFiles will be transferred to the success relationship after successfully being compressed or decompressed</description><name>success</name></relationships><state>STOPPED</state><style/><supportsEventDriven>true</supportsEventDriven><supportsParallelProcessing>true</supportsParallelProcessing><type>org.apache.nifi.processors.standard.CompressContent</type></processors><processors><id>5d459d9c-73ff-40b3-94bd-ca71ee9c1f32</id><parentGroupId>f3aded9a-3f8d-405f-a7ce-d070a298e906</parentGroupId><position><x>151.000000183863</x><y>603.9999999164496</y></position><config><bulletinLevel>WARN</bulletinLevel><comments></comments><concurrentlySchedulableTaskCount>1</concurrentlySchedulableTaskCount><defaultConcurrentTasks><entry><key>TIMER_DRIVEN</key><value>1</value></entry><entry><key>EVENT_DRIVEN</key><value>0</value></entry><entry><key>CRON_DRIVEN</key><value>1</value></entry></defaultConcurrentTasks><defaultSchedulingPeriod><entry><key>TIMER_DRIVEN</key><value>0 sec</value></entry><entry><key>CRON_DRIVEN</key><value>* * * * * ?</value></entry></defaultSchedulingPeriod><descriptors><entry><key>Directory</key><value><description>The directory to which files should be written. You may use expression language such as /aa/bb/${path}</description><displayName>Directory</displayName><dynamic>false</dynamic><name>Directory</name><required>true</required><sensitive>false</sensitive><supportsEl>true</supportsEl></value></entry><entry><key>Conflict Resolution Strategy</key><value><allowableValues><displayName>replace</displayName><value>replace</value></allowableValues><allowableValues><displayName>ignore</displayName><value>ignore</value></allowableValues><allowableValues><displayName>fail</displayName><value>fail</value></allowableValues><defaultValue>fail</defaultValue><description>Indicates what should happen when a file with the same name already exists in the output directory</description><displayName>Conflict Resolution Strategy</displayName><dynamic>false</dynamic><name>Conflict Resolution Strategy</name><required>true</required><sensitive>false</sensitive><supportsEl>false</supportsEl></value></entry><entry><key>Create Missing Directories</key><value><allowableValues><displayName>true</displayName><value>true</value></allowableValues><allowableValues><displayName>false</displayName><value>false</value></allowableValues><defaultValue>true</defaultValue><description>If true, then missing destination directories will be created. If false, flowfiles are penalized and sent to failure.</description><displayName>Create Missing Directories</displayName><dynamic>false</dynamic><name>Create Missing Directories</name><required>true</required><sensitive>false</sensitive><supportsEl>false</supportsEl></value></entry><entry><key>Maximum File Count</key><value><description>Specifies the maximum number of files that can exist in the output directory</description><displayName>Maximum File Count</displayName><dynamic>false</dynamic><name>Maximum File Count</name><required>false</required><sensitive>false</sensitive><supportsEl>false</supportsEl></value></entry><entry><key>Last Modified Time</key><value><description>Sets the lastModifiedTime on the output file to the value of this attribute.  Format must be yyyy-MM-dd'T'HH:mm:ssZ.  You may also use expression language such as ${file.lastModifiedTime}.</description><displayName>Last Modified Time</displayName><dynamic>false</dynamic><name>Last Modified Time</name><required>false</required><sensitive>false</sensitive><supportsEl>true</supportsEl></value></entry><entry><key>Permissions</key><value><description>Sets the permissions on the output file to the value of this attribute.  Format must be either UNIX rwxrwxrwx with a - in place of denied permissions (e.g. rw-r--r--) or an octal number (e.g. 644).  You may also use expression language such as ${file.permissions}.</description><displayName>Permissions</displayName><dynamic>false</dynamic><name>Permissions</name><required>false</required><sensitive>false</sensitive><supportsEl>true</supportsEl></value></entry><entry><key>Owner</key><value><description>Sets the owner on the output file to the value of this attribute.  You may also use expression language such as ${file.owner}.</description><displayName>Owner</displayName><dynamic>false</dynamic><name>Owner</name><required>false</required><sensitive>false</sensitive><supportsEl>true</supportsEl></value></entry><entry><key>Group</key><value><description>Sets the group on the output file to the value of this attribute.  You may also use expression language such as ${file.group}.</description><displayName>Group</displayName><dynamic>false</dynamic><name>Group</name><required>false</required><sensitive>false</sensitive><supportsEl>true</supportsEl></value></entry></descriptors><lossTolerant>false</lossTolerant><penaltyDuration>30 sec</penaltyDuration><properties><entry><key>Directory</key><value>./demo/compressed/</value></entry><entry><key>Conflict Resolution Strategy</key></entry><entry><key>Create Missing Directories</key></entry><entry><key>Maximum File Count</key></entry><entry><key>Last Modified Time</key></entry><entry><key>Permissions</key></entry><entry><key>Owner</key></entry><entry><key>Group</key></entry></properties><runDurationMillis>0</runDurationMillis><schedulingPeriod>0 sec</schedulingPeriod><schedulingStrategy>TIMER_DRIVEN</schedulingStrategy><yieldDuration>1 sec</yieldDuration></config><name>PutFile</name><relationships><autoTerminate>true</autoTerminate><description>Files that could not be written to the output directory for some reason are transferred to this relationship</description><name>failure</name></rela